*-----------------------------------------------------------------------
*      Cell        : INV_2
*      Description : Inverter
*      Equation    : X=!A
*      Version     : 1.1.1.1
*      Created     : 2005/05/29 21:05:26
*
.subckt INV_2 X A
CG1 VSS:20 VSS  2.910490e-18 
CG2 VSS:30 VSS  4.218130e-18 
CG3 VSS:F11 VSS  2.274950e-19 
CG4 VSS:66 VSS  3.435690e-18 
CG5 VSS:85 VSS  9.262770e-19 
R1 VSS:20 VSS  1.848770e+01 
R2 VSS:20 VSS:85  4.013390e+01 
R3 VSS:30 VSS:F11  1.942050e+01 
R4 VSS:30 VSS:66  9.191340e+02 
R5 VSS:30 VSS  1.813210e+01 
R6 VSS:66 VSS:F13  2.012210e+01 
R7 VSS:66 VSS  1.819440e+01 
R8 VSS:85 VSS  1.861520e+01 
CG10 X:F15 VSS  2.229250e-21 
C11 X:F9 VSS:20  7.949200e-19 
C12 X:F9 VSS:85  2.266820e-17 
C13 X:F9 VSS  2.301710e-18 
C15 X VSS  1.175072e-16 
C16 X VSS:20  3.072780e-18 
C17 X VSS:85  5.462660e-18 
CG19 X:54 VSS  4.285690e-18 
C20 X:52 VSS:66  6.734980e-20 
C21 X:52 VSS:20  1.139360e-20 
C22 X:52 VSS  4.562452e-18 
R9 X:F17 X:F23  1.524290e+01 
R10 X:F17 X:54  4.227650e+01 
R11 X:F23 X:54  3.849270e+01 
R12 X:F15 X:F9  1.426930e+02 
R13 X:F15 X:52  2.284310e+01 
R14 X:F9 X:52  2.397510e+01 
R15 X X:52  1.769337e+01 
R16 X X:54  1.730767e+01 
C24 VDD VSS  2.606606e-16 
C25 VDD VSS:30  5.833880e-19 
C26 VDD X  1.153286e-16 
C27 VDD VSS:F13  6.300590e-19 
C28 VDD X:F17  2.444790e-18 
C31 VDD:F21 VSS:F13  2.383110e-18 
C32 VDD:F21 VSS  9.033670e-19 
C34 VDD:F19 VSS:30  1.931440e-18 
C35 VDD:F19 VSS  4.731040e-19 
C38 VDD VSS:85  1.255760e-18 
C40 VDD:22 VSS:20  1.521720e-18 
C41 VDD:22 X:F17  1.032500e-18 
C42 VDD:22 X:54  1.983200e-21 
C43 VDD:22 VSS  6.325830e-18 
CG46 VDD:69 VSS  2.269830e-20 
C47 VDD:32 VSS:30  2.758440e-19 
C48 VDD:32 VSS  2.366720e-18 
C50 VDD:87 VSS:85  2.305020e-18 
C51 VDD:87 X:F17  1.034480e-18 
C52 VDD:87 VSS  5.866480e-18 
R17 VDD VDD:32  2.591949e+01 
R19 VDD VDD:69  1.723689e+01 
R20 VDD VDD:87  1.456376e+02 
R21 VDD:F21 VDD:69  2.476530e+01 
R22 VDD:F19 VDD:32  2.436870e+01 
R23 VDD VDD:22  1.853276e+01 
R24 VDD VDD:32  5.361506e+01 
R25 VDD VDD:87  2.138516e+01 
C54 A:42 VDD  2.589160e-18 
C55 A:42 VSS:20  4.053900e-17 
C56 A:42 X  4.540420e-17 
C57 A:42 VSS  3.356290e-17 
C58 A:F18 VDD  1.644615e-17 
C60 A:F18 X  1.697530e-17 
C61 A:F14 VSS:20  7.409250e-18 
C62 A:F22 VDD  1.588165e-17 
C63 A:F22 VSS:85  2.266760e-17 
C65 A:F22 X  2.333850e-17 
C66 A VDD  6.090210e-18 
C67 A X  7.927670e-17 
C68 A X:F9  1.577700e-19 
C70 A VSS:20  7.000410e-18 
C71 A 0  2.359618e-17 
R26 A:42 A:F18  2.358630e+01 
R27 A:42 A:F10  6.383020e+01 
R28 A:42 A:F14  1.372520e+02 
R29 A:42 A:F22  4.486300e+01 
R30 A:42 A  1.450025e+01 
R31 A:F14 A:F22  2.018840e+02 
MMNA X:F9 A:F10 VSS:F11 VSS  NCH AD=0.0585P AS=0.117P L=0.1U NRD=0.341774
+ NRS=0.683547 PD=0.71U PS=1.42U W=0.45U SA=2.6E-07 SB=6.2E-07
MMPA X:F17 A:F18 VDD:F19 VDD  PCH AD=0.0793P AS=0.1586P L=0.1U NRD=0.29164
+ NRS=0.583281 PD=0.87U PS=1.74U W=0.61U SA=2.6E-07 SB=6.2E-07
MMNA@2 X:F15 A:F14 VSS:F13 VSS  NCH L=0.1U W=0.45U AD=0.0585P AS=0.117P
+ NRD=0.341774 NRS=0.683547 PD=0.71U PS=1.42U SA=6.2E-07 SB=2.6E-07
MMPA@2 X:F23 A:F22 VDD:F21 VDD  PCH L=0.1U W=0.61U AD=0.0793P AS=0.1586P
+ NRD=0.29164 NRS=0.583281 PD=0.87U PS=1.74U SA=6.2E-07 SB=2.6E-07
.ends

