
.subckt SDFCSND4  SI D SE CP CDN SDN Q QN
MM9 M9:DRN M9:GATE M9:SRC M9:BULK nch ad=0.06075p as=0.06318p l=0.09u nrd=0.209 nrs=0.217 pd=0.927u ps=0.774u sa=1.071e-06 sb=1.413e-06 w=0.54u 
MM10 M10:DRN M10:GATE M10:SRC M10:BULK nch ad=0.06318p as=0.06075p l=0.09u nrd=0.217 nrs=0.209 pd=0.774u ps=0.927u sa=7.47e-07 sb=1.737e-06 w=0.54u 
MM12 M12:DRN M12:GATE M12:SRC M12:BULK nch ad=0.06318p as=0.0972p l=0.09u nrd=0.217 nrs=0.334 pd=0.774u ps=1.764u sa=1.44e-07 sb=2.34e-06 w=0.54u 
MM21 M21:DRN M21:GATE M21:SRC M21:BULK nch ad=0.0972p as=0.06561p l=0.09u nrd=0.334 nrs=0.226 pd=1.764u ps=0.8289u sa=4.761e-07 sb=1.44e-07 w=0.54u 
MM14 M14:DRN M14:GATE M14:SRC M14:BULK nch ad=0.08505p as=0.0405p l=0.09u nrd=0.42 nrs=0.2 pd=0.99u ps=0.63u sa=7.83e-07 sb=8.37e-07 w=0.45u 
MM23 M23:DRN M23:GATE M23:SRC M23:BULK nch ad=0.05589p as=0.06237p l=0.09u nrd=0.767 nrs=0.86 pd=0.954u ps=0.8856u sa=2.07e-07 sb=3.663e-07 w=0.27u 
MM16 M16:DRN M16:GATE M16:SRC M16:BULK nch ad=0.0405p as=0.05832p l=0.09u nrd=0.2 nrs=0.288 pd=0.63u ps=0.8046u sa=4.347e-07 sb=1.107e-06 w=0.45u 
MM25 M25:DRN M25:GATE M25:SRC M25:BULK nch ad=0.02997p as=0.04212p l=0.09u nrd=0.925 nrs=1.29 pd=0.603u ps=0.5904u sa=5.67e-07 sb=1.53e-07 w=0.18u 
MM18 M18:DRN M18:GATE M18:SRC M18:BULK nch ad=0.0405p as=0.09315p l=0.09u nrd=0.2 nrs=0.46 pd=0.63u ps=1.314u sa=1.4715e-06 sb=2.07e-07 w=0.45u 
MM2 M2:DRN M2:GATE M2:SRC M2:BULK nch ad=0.03726p as=0.03564p l=0.09u nrd=0.449 nrs=0.428 pd=0.576u ps=0.6426u sa=7.353e-07 sb=2.826e-07 w=0.288u 
MM27 M27:DRN M27:GATE M27:SRC M27:BULK nch ad=0.0162p as=0.05265p l=0.09u nrd=0.5 nrs=1.634 pd=0.36u ps=0.5895u sa=1.071e-06 sb=1.4589e-06 w=0.18u 
MM4 M4:DRN M4:GATE M4:SRC M4:BULK nch ad=0.0162p as=0.0162p l=0.09u nrd=0.5 nrs=0.5 pd=0.36u ps=0.36u sa=8.01e-07 sb=1.7334e-06 w=0.18u 
MM29 M29:DRN M29:GATE M29:SRC M29:BULK nch ad=0.03078p as=0.10044p l=0.09u nrd=0.263 nrs=0.86 pd=0.522u ps=1.1205u sa=5.859e-07 sb=6.741e-07 w=0.342u 
MM6 M6:DRN M6:GATE M6:SRC M6:BULK nch ad=0.06318p as=0.06075p l=0.09u nrd=0.217 nrs=0.209 pd=0.774u ps=0.927u sa=1.953e-06 sb=5.31e-07 w=0.54u 
MM8 M8:DRN M8:GATE M8:SRC M8:BULK nch ad=0.06318p as=0.06075p l=0.09u nrd=0.217 nrs=0.209 pd=0.774u ps=0.927u sa=1.35e-06 sb=1.134e-06 w=0.54u 
MM11 M11:DRN M11:GATE M11:SRC M11:BULK nch ad=0.06075p as=0.06318p l=0.09u nrd=0.209 nrs=0.217 pd=0.927u ps=0.774u sa=4.68e-07 sb=2.016e-06 w=0.54u 
MM20 M20:DRN M20:GATE M20:SRC M20:BULK nch ad=0.11178p as=0.06723p l=0.09u nrd=0.383 nrs=0.231 pd=1.494u ps=0.945u sa=2.07e-07 sb=5.04e-07 w=0.54u 
MM13 M13:DRN M13:GATE M13:SRC M13:BULK nch ad=0.08505p as=0.0405p l=0.09u nrd=0.42 nrs=0.2 pd=0.99u ps=0.63u sa=1.1853e-06 sb=4.77e-07 w=0.45u 
MM22 M22:DRN M22:GATE M22:SRC M22:BULK nch ad=0.02673p as=0.02997p l=0.09u nrd=0.828 nrs=0.925 pd=0.3897u ps=0.603u sa=1.53e-07 sb=7.92e-07 w=0.18u 
MM15 M15:DRN M15:GATE M15:SRC M15:BULK nch ad=0.0405p as=0.02835p l=0.09u nrd=0.412 nrs=0.286 pd=0.5634u ps=0.495u sa=5.04e-07 sb=1.431e-06 w=0.315u 
MM24 M24:DRN M24:GATE M24:SRC M24:BULK nch ad=0.06966p as=0.05751p l=0.09u nrd=0.318 nrs=0.261 pd=1.0143u ps=0.7191u sa=2.52e-07 sb=4.68e-07 w=0.468u 
MM17 M17:DRN M17:GATE M17:SRC M17:BULK nch ad=0.02835p as=0.11097p l=0.09u nrd=0.286 nrs=1.12 pd=0.495u ps=1.494u sa=2.34e-07 sb=1.701e-06 w=0.315u 
MM1 M1:DRN M1:GATE M1:SRC M1:BULK nch ad=0.03888p as=0.02187p l=0.09u nrd=1.2 nrs=0.685 pd=0.792u ps=0.4014u sa=1.1781e-06 sb=2.16e-07 w=0.18u 
MM26 M26:DRN M26:GATE M26:SRC M26:BULK nch ad=0.09315p as=0.05751p l=0.09u nrd=0.46 nrs=0.286 pd=1.314u ps=0.9774u sa=2.07e-07 sb=2.538e-07 w=0.45u 
MM19 M19:DRN M19:GATE M19:SRC M19:BULK nch ad=0.11178p as=0.06723p l=0.09u nrd=0.383 nrs=0.231 pd=1.494u ps=0.945u sa=5.04e-07 sb=2.07e-07 w=0.54u 
MM3 M3:DRN M3:GATE M3:SRC M3:BULK nch ad=0.04455p as=0.03078p l=0.09u nrd=0.378 nrs=0.263 pd=0.684u ps=0.522u sa=9.405e-07 sb=3.375e-07 w=0.342u 
MM28 M28:DRN M28:GATE M28:SRC M28:BULK nch ad=0.0162p as=0.02349p l=0.09u nrd=0.5 nrs=0.714 pd=0.36u ps=0.3906u sa=5.31e-07 sb=2.0061e-06 w=0.18u 
MM5 M5:DRN M5:GATE M5:SRC M5:BULK nch ad=0.11178p as=0.06318p l=0.09u nrd=0.383 nrs=0.217 pd=1.494u ps=0.774u sa=2.277e-06 sb=2.07e-07 w=0.54u 
MM7 M7:DRN M7:GATE M7:SRC M7:BULK nch ad=0.06075p as=0.06318p l=0.09u nrd=0.209 nrs=0.217 pd=0.927u ps=0.774u sa=1.674e-06 sb=8.1e-07 w=0.54u 
MM51 M51:DRN M51:GATE M51:SRC M51:BULK pch ad=0.07776p as=0.08424p l=0.09u nrd=0.15 nrs=0.162 pd=1.107u ps=0.954u sa=2.8188e-06 sb=8.1e-07 w=0.72u 
MM44 M44:DRN M44:GATE M44:SRC M44:BULK pch ad=0.02187p as=0.03969p l=0.09u nrd=0.3 nrs=0.54 pd=0.432u ps=0.5184u sa=7.83e-07 sb=7.92e-07 w=0.27u 
MM37 M37:DRN M37:GATE M37:SRC M37:BULK pch ad=0.04698p as=0.04455p l=0.09u nrd=0.36 nrs=0.343 pd=0.6984u ps=0.6237u sa=8.1e-07 sb=3.555e-07 w=0.36u 
MM53 M53:DRN M53:GATE M53:SRC M53:BULK pch ad=0.07776p as=0.08424p l=0.09u nrd=0.15 nrs=0.162 pd=1.107u ps=0.954u sa=2.1177e-06 sb=1.413e-06 w=0.72u 
MM46 M46:DRN M46:GATE M46:SRC M46:BULK pch ad=0.14904p as=0.08181p l=0.09u nrd=0.287 nrs=0.158 pd=1.854u ps=1.116u sa=2.07e-07 sb=4.608e-07 w=0.72u 
MM39 M39:DRN M39:GATE M39:SRC M39:BULK pch ad=0.05994p as=0.10449p l=0.09u nrd=0.228 nrs=0.398 pd=0.747u ps=1.062u sa=8.964e-07 sb=3.474e-06 w=0.513u 
MM55 M55:DRN M55:GATE M55:SRC M55:BULK pch ad=0.07776p as=0.08424p l=0.09u nrd=0.15 nrs=0.162 pd=1.107u ps=0.954u sa=1.3176e-06 sb=2.016e-06 w=0.72u 
MM48 M48:DRN M48:GATE M48:SRC M48:BULK pch ad=0.09153p as=0.07695p l=0.09u nrd=0.231 nrs=0.193 pd=1.2096u ps=0.8901u sa=3.105e-07 sb=4.68e-07 w=0.63u 
MM57 M57:DRN M57:GATE M57:SRC M57:BULK pch ad=0.12069p as=0.06723p l=0.09u nrd=0.354 nrs=0.197 pd=1.584u ps=1.017u sa=2.07e-07 sb=6.651e-07 w=0.585u 
MM30 M30:DRN M30:GATE M30:SRC M30:BULK pch ad=0.07452p as=0.04374p l=0.09u nrd=0.575 nrs=0.336 pd=1.134u ps=0.6786u sa=2.07e-07 sb=4.941e-07 w=0.36u 
MM32 M32:DRN M32:GATE M32:SRC M32:BULK pch ad=0.05184p as=0.0324p l=0.09u nrd=0.821 nrs=0.515 pd=0.918u ps=0.4896u sa=1.134e-06 sb=2.07e-07 w=0.252u 
MM41 M41:DRN M41:GATE M41:SRC M41:BULK pch ad=0.05022p as=0.0972p l=0.09u nrd=0.271 nrs=0.52 pd=0.666u ps=1.485u sa=4.68e-07 sb=4.077e-06 w=0.432u 
MM34 M34:DRN M34:GATE M34:SRC M34:BULK pch ad=0.03807p as=0.06642p l=0.09u nrd=0.527 nrs=0.909 pd=0.5985u ps=1.062u sa=5.418e-07 sb=3.627e-07 w=0.27u 
MM50 M50:DRN M50:GATE M50:SRC M50:BULK pch ad=0.08424p as=0.07776p l=0.09u nrd=0.162 nrs=0.15 pd=0.954u ps=1.107u sa=3.1284e-06 sb=5.31e-07 w=0.72u 
MM43 M43:DRN M43:GATE M43:SRC M43:BULK pch ad=0.05994p as=0.11259p l=0.09u nrd=0.228 nrs=0.427 pd=0.747u ps=1.0332u sa=1.6596e-06 sb=2.754e-06 w=0.513u 
MM36 M36:DRN M36:GATE M36:SRC M36:BULK pch ad=0.06156p as=0.10854p l=0.09u nrd=0.261 nrs=0.46 pd=0.9846u ps=1.746u sa=1.611e-07 sb=2.655e-07 w=0.486u 
MM52 M52:DRN M52:GATE M52:SRC M52:BULK pch ad=0.08424p as=0.07776p l=0.09u nrd=0.162 nrs=0.15 pd=0.954u ps=1.107u sa=2.4489e-06 sb=1.134e-06 w=0.72u 
MM45 M45:DRN M45:GATE M45:SRC M45:BULK pch ad=0.12636p as=0.08181p l=0.09u nrd=0.244 nrs=0.158 pd=1.872u ps=1.116u sa=4.95e-07 sb=1.701e-07 w=0.72u 
MM38 M38:DRN M38:GATE M38:SRC M38:BULK pch ad=0.05994p as=0.10449p l=0.09u nrd=0.228 nrs=0.398 pd=0.747u ps=1.062u sa=1.3239e-06 sb=3.078e-06 w=0.513u 
MM54 M54:DRN M54:GATE M54:SRC M54:BULK pch ad=0.08424p as=0.07776p l=0.09u nrd=0.162 nrs=0.15 pd=0.954u ps=1.107u sa=1.7082e-06 sb=1.737e-06 w=0.72u 
MM47 M47:DRN M47:GATE M47:SRC M47:BULK pch ad=0.12312p as=0.08748p l=0.09u nrd=0.238 nrs=0.169 pd=2.124u ps=1.0179u sa=5.49e-07 sb=1.44e-07 w=0.72u 
MM56 M56:DRN M56:GATE M56:SRC M56:BULK pch ad=0.08424p as=0.15795p l=0.09u nrd=0.162 nrs=0.304 pd=0.954u ps=1.4508u sa=7.731e-07 sb=2.34e-06 w=0.72u 
MM49 M49:DRN M49:GATE M49:SRC M49:BULK pch ad=0.14904p as=0.08424p l=0.09u nrd=0.287 nrs=0.162 pd=1.854u ps=0.954u sa=3.4803e-06 sb=2.07e-07 w=0.72u 
MM58 M58:DRN M58:GATE M58:SRC M58:BULK pch ad=0.06723p as=0.07209p l=0.09u nrd=0.197 nrs=0.211 pd=1.017u ps=1.0143u sa=4.86e-07 sb=3.069e-07 w=0.585u 
MM31 M31:DRN M31:GATE M31:SRC M31:BULK pch ad=0.0324p as=0.02187p l=0.09u nrd=0.448 nrs=0.3 pd=0.5094u ps=0.432u sa=5.31e-07 sb=1.044e-06 w=0.27u 
MM40 M40:DRN M40:GATE M40:SRC M40:BULK pch ad=0.05994p as=0.11502p l=0.09u nrd=0.228 nrs=0.438 pd=0.747u ps=1.764u sa=4.815e-07 sb=3.798e-06 w=0.513u 
MM33 M33:DRN M33:GATE M33:SRC M33:BULK pch ad=0.0324p as=0.02835p l=0.09u nrd=0.633 nrs=0.564 pd=0.4995u ps=0.4554u sa=4.797e-07 sb=8.55e-07 w=0.225u 
MM42 M42:DRN M42:GATE M42:SRC M42:BULK pch ad=0.05022p as=0.0972p l=0.09u nrd=0.271 nrs=0.52 pd=0.666u ps=1.485u sa=1.44e-07 sb=4.401e-06 w=0.432u 
MM35 M35:DRN M35:GATE M35:SRC M35:BULK pch ad=0.05589p as=0.06642p l=0.09u nrd=0.767 nrs=0.909 pd=0.954u ps=1.062u sa=5.832e-07 sb=2.07e-07 w=0.27u 
R1 M25:DRN M22:SRC 4.04798e-10
R2 M44:DRN M31:SRC 0.001
R3 M44:GATE M30:DRN 215.613
R4 M44:GATE M24:GATE 325.97
R5 M44:GATE M23:DRN 207.954
R6 M30:DRN M24:GATE 272.766
R7 M30:DRN M23:DRN 43.3872
R8 M24:GATE M23:DRN 263.076
R9 M31:GATE M25:GATE 253.121
R10 M31:GATE SI 104.484
R11 SI M25:GATE 59.9446
R12 M48:SRC M24:SRC 36.5158
R13 M48:SRC M47:SRC 0.001
R14 M24:SRC M21:SRC 0.001
R15 M46:GATE M20:GATE 289.061
R16 M46:GATE CP 116.641
R17 CP M20:GATE 97.828
R18 M47:GATE M21:GATE 297.009
R19 M47:GATE D 92.3837
R20 D M21:GATE 75.4797
R21 M48:GATE M30:GATE 217.08
R22 M30:GATE M23:GATE 253.432
R23 M30:GATE SE 93.0152
R24 SE M23:GATE 66.6115
R25 M23:GATE M22:GATE 163.08
R26 M13:SRC M18:DRN 0.001
R27 M14:SRC M16:DRN 0.001
R28 M3:SRC M29:DRN 0.001
R29 M15:SRC M17:DRN 0.001
R30 M27:DRN M4:DRN 0.001
R31 M26:DRN M22:DRN 28.6516
R32 M24:DRN M22:DRN 3.54388e-10
R33 M4:SRC M28:DRN 0.001
R34 M33:DRN M34:DRN 7.6e-10
R35 M34:DRN M35:DRN 36.5127
R36 M33:GATE M45:GATE 287.138
R37 M33:GATE M37:GATE 97.5975
R38 M37:GATE M45:GATE 717.781
R39 M37:GATE M1:GATE 88.4329
R40 M26:GATE M19:GATE 169.56
R41 M45:GATE M19:GATE 226.27
R42 M45:GATE M20:DRN 225.219
R43 M45:GATE M46:DRN 227.86
R44 M46:DRN M19:GATE 186.362
R45 M46:DRN M20:DRN 45.3801
R46 M19:GATE M20:DRN 184.202
R47 M45:DRN M19:DRN 43.845
R48 M45:DRN M36:GATE 170.596
R49 M45:DRN M28:GATE 316.456
R50 M36:GATE M19:DRN 170.074
R51 M36:GATE M28:GATE 314.021
R52 M32:GATE N_18:1 325.877
R53 M32:GATE M2:GATE 617.773
R54 M2:GATE N_18:1 47.8681
R55 M28:GATE M19:DRN 315.486
R56 M28:GATE N_18:1 44.4992
R57 M57:GATE M28:SRC 345.701
R58 M57:GATE M36:DRN 351.148
R59 M57:GATE M29:GATE 220.607
R60 M36:DRN M28:SRC 45.1016
R61 M36:DRN M29:GATE 132.905
R62 M36:DRN M33:SRC 6.57778e-10
R63 M29:GATE M28:SRC 130.843
R64 M28:SRC M26:SRC 0.001
R65 N_73:1 M48:DRN 19.4624
R66 N_73:1 M36:SRC 18
R67 M48:DRN M44:SRC 0.001
R68 SDN:1 M58:GATE 399
R69 SDN:1 M43:GATE 65.28
R70 M58:GATE M3:GATE 117.51
R71 M43:GATE M18:GATE 229.082
R72 M43:GATE SDN 88.3804
R73 SDN M18:GATE 64.8938
R74 QN M10:DRN 9.2371
R75 QN M53:SRC 18.1828
R76 QN M12:DRN 9.29681
R77 QN M55:SRC 18.406
R78 M55:SRC M56:DRN 0.001
R79 M53:SRC M54:DRN 0.001
R80 M12:DRN M10:DRN 703.543
R81 M12:DRN M11:SRC 0.001
R82 M10:DRN M9:SRC 0.001
R83 Q M8:DRN 9.31172
R84 Q M52:DRN 9.40821
R85 Q M6:DRN 9.23691
R86 Q M50:DRN 9.27762
R87 M52:DRN M50:DRN 605.776
R88 M52:DRN M51:SRC 0.001
R89 M50:DRN M49:SRC 0.001
R90 M8:DRN M6:DRN 704.671
R91 M8:DRN M7:SRC 0.001
R92 M6:DRN M5:SRC 0.001
R93 N_62:1 M34:GATE 57.3759
R94 N_62:1 M4:GATE 93.7139
R95 N_62:1 M57:DRN 18.1657
R96 N_62:1 M58:SRC 18.8885
R97 N_62:1 M2:DRN 18.7293
R98 M58:SRC M2:DRN 1608.05
R99 M58:SRC M37:SRC 2.68658e-10
R100 M34:GATE M4:GATE 196.001
R101 M3:DRN M2:DRN 2.95698e-10
R102 CDN:1 M15:GATE 60.3062
R103 CDN:1 M16:GATE 50.0727
R104 CDN:1 M40:GATE 55.68
R105 CDN:1 M41:GATE 103.277
R106 CDN:1 CDN 24.1852
R107 M35:GATE M27:GATE 94.5
R108 M41:GATE M15:GATE 246.499
R109 M41:GATE CDN 278.381
R110 M27:GATE CDN:2 68.04
R111 CDN M15:GATE 162.554
R112 M15:GATE CDN:2 338.64
R113 GND:1 GND:3 0.592545
R114 GND:1 M21:DRN 1.54168
R115 GND:1 GND:2 0.53703
R116 GND:1 M13:DRN 18
R117 GND:1 M17:SRC 18.4649
R118 GND:2 M25:SRC 18.7538
R119 GND:2 M21:DRN 1.37818
R120 GND:2 GND 0.781066
R121 GND:2 M29:SRC 18.2931
R122 M7:DRN M6:SRC 0.001
R123 M7:DRN M21:DRN 1.42857e-09
R124 M11:DRN M10:SRC 0.001
R125 M11:DRN M21:DRN 1.42857e-09
R126 M12:SRC M21:DRN 1.875e-09
R127 M9:DRN M8:SRC 0.001
R128 M9:DRN M21:DRN 1.42857e-09
R129 M29:BULK M21:DRN 5.26862e-06
R130 M29:BULK M9:BULK 0.001
R131 M29:BULK M23:BULK 0.001
R132 M29:BULK M25:BULK 0.001
R133 M29:BULK M22:BULK 0.001
R134 M29:BULK M24:BULK 0.001
R135 M29:BULK M21:BULK 0.001
R136 M29:BULK M20:BULK 0.001
R137 M29:BULK M19:BULK 0.001
R138 M29:BULK M10:BULK 0.001
R139 M29:BULK M26:BULK 0.001
R140 M29:BULK M28:BULK 0.001
R141 M29:BULK M4:BULK 0.001
R142 M29:BULK M27:BULK 0.001
R143 M29:BULK M3:BULK 0.001
R144 M29:BULK M2:BULK 0.001
R145 M29:BULK M1:BULK 0.001
R146 M29:BULK M17:BULK 0.001
R147 M29:BULK M15:BULK 0.001
R148 M29:BULK M16:BULK 0.001
R149 M29:BULK M14:BULK 0.001
R150 M29:BULK M13:BULK 0.001
R151 M29:BULK M18:BULK 0.001
R152 M29:BULK M12:BULK 0.001
R153 M29:BULK M11:BULK 0.001
R154 M29:BULK M8:BULK 0.001
R155 M29:BULK M7:BULK 0.001
R156 M29:BULK M6:BULK 0.001
R157 M29:BULK M5:BULK 0.001
R158 GND:3 M21:DRN 2.58369
R159 GND:3 M5:DRN 9.28955
R160 M29:SRC M27:SRC 0.001
R161 M13:DRN M21:DRN 5.29952e-10
R162 M13:DRN M14:DRN 0.001
R163 M21:DRN M19:SRC 6.48291e-10
R164 M21:DRN GND 2.27921
R165 M19:SRC M20:SRC 0.001
R166 M25:SRC M23:SRC 0.001
R167 N_56:1 M2:SRC 20.39
R168 N_56:1 M32:SRC 19.8539
R169 N_56:1 M17:GATE 62.7763
R170 N_56:1 M14:GATE 75.0416
R171 N_56:1 M39:GATE 81.5638
R172 N_56:1 M42:GATE 75.4606
R173 M39:GATE M14:GATE 224.211
R174 M42:GATE M17:GATE 174.638
R175 M32:SRC M2:SRC 390.735
R176 M32:SRC M37:DRN 0.001
R177 M2:SRC M1:SRC 8.22222e-10
R178 N_15:1 N_15:3 16.8524
R179 N_15:1 M8:GATE 49.4463
R180 N_15:1 M7:GATE 137.142
R181 N_15:1 N_15:2 31.4452
R182 N_15:1 M52:GATE 66.96
R183 N_15:1 M51:GATE 163.515
R184 N_15:2 M7:GATE 135.203
R185 N_15:2 M6:GATE 56.16
R186 N_15:2 M5:GATE 83.6558
R187 N_15:2 M51:GATE 161.204
R188 N_15:2 M50:GATE 66.96
R189 N_15:2 M49:GATE 99.7434
R190 N_15:3 M41:DRN 18.9343
R191 N_15:3 M15:DRN 19.263
R192 N_15:3 M39:DRN 18.5214
R193 N_15:3 M13:GATE 71.4006
R194 N_15:3 M38:GATE 85.1383
R195 M51:GATE M7:GATE 703.056
R196 M49:GATE M5:GATE 374.592
R197 M39:DRN M41:DRN 1293.07
R198 M39:DRN M40:DRN 0.001
R199 M38:GATE M15:DRN 5371.01
R200 M38:GATE M13:GATE 231.077
R201 M41:DRN M42:DRN 0.001
R202 M13:GATE M15:DRN 4504.36
R203 M15:DRN M16:SRC 1.94241e-10
R204 N_13:1 M1:DRN 24.1229
R205 N_13:1 M32:DRN 24.7104
R206 N_13:1 M18:SRC 19.8327
R207 N_13:1 M43:DRN 18.5613
R208 N_13:1 N_13:2 15.1609
R209 N_13:2 N_13:3 32.0357
R210 N_13:2 M12:GATE 50.3082
R211 N_13:2 M11:GATE 139.717
R212 N_13:2 M56:GATE 66.96
R213 N_13:2 M55:GATE 166.586
R214 N_13:3 M9:GATE 83.6558
R215 N_13:3 M10:GATE 56.16
R216 N_13:3 M11:GATE 133.497
R217 N_13:3 M54:GATE 66.96
R218 N_13:3 M53:GATE 99.7434
R219 N_13:3 M55:GATE 159.169
R220 M55:GATE M11:GATE 694.183
R221 M53:GATE M9:GATE 374.592
R222 M43:DRN M38:DRN 0.001
R223 M18:SRC M1:DRN 621.875
R224 M18:SRC M32:DRN 637.02
R225 M32:DRN M1:DRN 164.195
R226 VDD:1 M47:DRN 45.2949
R227 VDD:1 VDD:3 0.345641
R228 VDD:1 M57:SRC 2.35432
R229 VDD:1 M42:SRC 18.1708
R230 VDD:1 VDD:2 0.360114
R231 VDD:2 M57:SRC 1.33145
R232 VDD:2 M38:SRC 18.2899
R233 VDD:2 M56:SRC 18.2567
R234 VDD:2 M49:DRN 10.7909
R235 VDD:3 M47:DRN 1.93716
R236 VDD:3 M31:DRN 18.7088
R237 VDD:3 VDD 0.704189
R238 VDD:3 M35:SRC 18
R239 VDD:3 M57:SRC 11.2379
R240 M58:BULK M47:DRN 5.2446e-06
R241 M58:BULK M46:SRC 0.00514403
R242 M58:BULK M53:DRN 0.00561167
R243 M58:BULK M35:SRC 0.00237417
R244 M58:BULK M57:SRC 0.00561167
R245 M58:BULK M56:SRC 0.00237417
R246 M58:BULK M55:DRN 0.00561167
R247 M58:BULK M51:DRN 0.00561167
R248 M58:BULK M49:BULK 0.001
R249 M58:BULK M54:BULK 0.001
R250 M58:BULK M30:BULK 0.001
R251 M58:BULK M31:BULK 0.001
R252 M58:BULK M44:BULK 0.001
R253 M58:BULK M53:BULK 0.001
R254 M58:BULK M48:BULK 0.001
R255 M58:BULK M47:BULK 0.001
R256 M58:BULK M46:BULK 0.001
R257 M58:BULK M45:BULK 0.001
R258 M58:BULK M36:BULK 0.001
R259 M58:BULK M33:BULK 0.001
R260 M58:BULK M34:BULK 0.001
R261 M58:BULK M35:BULK 0.001
R262 M58:BULK M57:BULK 0.001
R263 M58:BULK M37:BULK 0.001
R264 M58:BULK M32:BULK 0.001
R265 M58:BULK M42:BULK 0.001
R266 M58:BULK M41:BULK 0.001
R267 M58:BULK M40:BULK 0.001
R268 M58:BULK M39:BULK 0.001
R269 M58:BULK M38:BULK 0.001
R270 M58:BULK M43:BULK 0.001
R271 M58:BULK M56:BULK 0.001
R272 M58:BULK M55:BULK 0.001
R273 M58:BULK M52:BULK 0.001
R274 M58:BULK M51:BULK 0.001
R275 M58:BULK M50:BULK 0.001
R276 VDD M47:DRN 2.38408
R277 M55:DRN M54:SRC 0.001
R278 M55:DRN M57:SRC 6.36364e-10
R279 M53:DRN M52:SRC 0.001
R280 M53:DRN M57:SRC 1.01515e-09
R281 M51:DRN M50:SRC 0.001
R282 M51:DRN M57:SRC 6.16601e-10
R283 M56:SRC M57:SRC 4.61538e-10
R284 M56:SRC M43:SRC 0.001
R285 M49:DRN M57:SRC 80.5802
R286 M57:SRC M47:DRN 1.55e-09
R287 M57:SRC M58:DRN 0.001
R288 M38:SRC M39:SRC 0.001
R289 M42:SRC M40:SRC 1.85859e-09
R290 M40:SRC M41:SRC 0.001
R291 M35:SRC M47:DRN 4.61538e-10
R292 M35:SRC M34:SRC 0.001
R293 M47:DRN M46:SRC 5.83333e-10
R294 M46:SRC M45:SRC 0.001
R295 M31:DRN M30:SRC 0.001
c_1 M25:DRN 0 6.36944e-20 
c_2 M22:SRC 0 5.12627e-20 
c_3 M44:DRN M25:DRN 9.3013e-19 
c_4 M44:DRN M22:SRC 1.48869e-19 
c_5 M44:DRN 0 2.84906e-19 
c_6 M44:GATE 0 4.7343e-18 
c_7 M30:DRN M22:SRC 9.98145e-19 
c_8 M30:DRN 0 2.13076e-19 
c_9 M24:GATE 0 5.30103e-17 
c_10 M23:DRN M25:DRN 3.81485e-18 
c_11 M23:DRN M22:SRC 5.4907e-20 
c_12 M23:DRN 0 5.7166e-20 
c_13 M31:GATE M30:DRN 8.48444e-18 
c_14 M31:GATE M44:GATE 2.04593e-17 
c_15 M31:GATE 0 1.4071e-17 
c_16 SI M25:DRN 1.67676e-19 
c_17 SI M23:DRN 8.06572e-17 
c_18 SI M44:DRN 2.74271e-18 
c_19 SI M44:GATE 4.21641e-18 
c_20 SI 0 1.42163e-17 
c_21 M25:GATE M30:DRN 4.93618e-18 
c_22 M25:GATE M22:SRC 9.12485e-18 
c_23 M25:GATE M23:DRN 1.52522e-19 
c_24 M25:GATE M44:GATE 7.44594e-18 
c_25 M25:GATE 0 1.01742e-18 
c_26 M48:SRC M30:DRN 2.92155e-18 
c_27 M48:SRC M44:GATE 1.06851e-18 
c_28 M48:SRC 0 1.41886e-17 
c_29 M24:SRC M30:DRN 4.29568e-17 
c_30 M24:SRC M24:GATE 2.58356e-17 
c_31 M24:SRC M44:GATE 9.18795e-19 
c_32 M24:SRC 0 1.53275e-17 
c_33 M46:GATE 0 2.20966e-17 
c_34 CP 0 9.14163e-18 
c_35 M20:GATE 0 2.50538e-18 
c_36 M47:GATE M24:SRC 5.23689e-18 
c_37 M47:GATE M44:GATE 1.60914e-19 
c_38 M47:GATE M48:SRC 1.69197e-17 
c_39 M47:GATE CP 8.27605e-18 
c_40 M47:GATE M46:GATE 2.64459e-18 
c_41 M47:GATE 0 2.17261e-17 
c_42 D M24:GATE 7.51912e-18 
c_43 D M24:SRC 2.52743e-17 
c_44 D M44:GATE 1.04471e-17 
c_45 D M48:SRC 8.43317e-17 
c_46 D CP 7.65225e-17 
c_47 D M46:GATE 1.16526e-18 
c_48 D 0 1.1422e-17 
c_49 M21:GATE M24:GATE 3.14755e-18 
c_50 M21:GATE M24:SRC 6.74698e-18 
c_51 M21:GATE M20:GATE 1.31342e-18 
c_52 M21:GATE CP 1.42101e-17 
c_53 M21:GATE 0 2.29291e-18 
c_54 M48:GATE M30:DRN 1.41053e-17 
c_55 M48:GATE M24:SRC 3.4968e-18 
c_56 M48:GATE M44:DRN 4.26422e-18 
c_57 M48:GATE SI 7.38774e-19 
c_58 M48:GATE M31:GATE 7.39818e-18 
c_59 M48:GATE M44:GATE 7.95817e-18 
c_60 M48:GATE M48:SRC 2.37692e-17 
c_61 M48:GATE 0 3.6123e-18 
c_62 M30:GATE M30:DRN 1.67001e-17 
c_63 M30:GATE M24:SRC 4.43815e-18 
c_64 M30:GATE M23:DRN 8.36146e-18 
c_65 M30:GATE SI 2.79353e-18 
c_66 M30:GATE M31:GATE 7.21188e-18 
c_67 M30:GATE M44:GATE 1.77063e-19 
c_68 M30:GATE 0 1.22106e-17 
c_69 SE M30:DRN 1.1177e-16 
c_70 SE M25:GATE 2.83646e-20 
c_71 SE M24:SRC 3.35273e-19 
c_72 SE M23:DRN 1.84197e-19 
c_73 SE SI 7.40865e-17 
c_74 SE M31:GATE 2.18917e-18 
c_75 SE 0 1.28815e-19 
c_76 M23:GATE M25:GATE 1.74347e-18 
c_77 M23:GATE M24:SRC 1.02484e-20 
c_78 M23:GATE M23:DRN 2.57654e-17 
c_79 M23:GATE SI 2.5664e-18 
c_80 M23:GATE M31:GATE 4.3319e-18 
c_81 M23:GATE M44:GATE 4.68995e-19 
c_82 M23:GATE 0 7.69287e-18 
c_83 M22:GATE M30:DRN 1.00563e-17 
c_84 M22:GATE M25:GATE 9.26763e-18 
c_85 M22:GATE M25:DRN 7.6689e-18 
c_86 M22:GATE M22:SRC 9.01604e-18 
c_87 M22:GATE M24:GATE 5.04253e-18 
c_88 M22:GATE M24:SRC 6.9564e-19 
c_89 M22:GATE 0 4.74486e-18 
c_90 M13:SRC 0 4.16809e-19 
c_91 M14:SRC 0 6.11778e-19 
c_92 M3:SRC 0 6.9984e-20 
c_93 M15:SRC 0 4.57615e-20 
c_94 M27:DRN 0 1.44685e-20 
c_95 M26:DRN M22:GATE 3.80364e-18 
c_96 M26:DRN M24:GATE 1.17221e-18 
c_97 M26:DRN M24:SRC 6.28489e-18 
c_98 M26:DRN M44:GATE 2.98504e-17 
c_99 M26:DRN M48:SRC 5.32372e-17 
c_100 M26:DRN M48:GATE 5.50251e-20 
c_101 M26:DRN 0 3.60752e-17 
c_102 M24:DRN M48:GATE 9.62438e-19 
c_103 M24:DRN M23:GATE 2.98675e-19 
c_104 M24:DRN M30:DRN 1.14158e-17 
c_105 M24:DRN M25:DRN 7.03629e-18 
c_106 M24:DRN M22:SRC 1.66882e-18 
c_107 M24:DRN M22:GATE 9.80641e-18 
c_108 M24:DRN 0 2.14514e-18 
c_109 M22:DRN M22:GATE 1.95133e-17 
c_110 M22:DRN M30:DRN 1.72297e-17 
c_111 M22:DRN M24:GATE 2.17073e-18 
c_112 M22:DRN M24:SRC 4.29084e-19 
c_113 M22:DRN M30:GATE 1.50365e-24 
c_114 M22:DRN M48:GATE 3.00837e-20 
c_115 M22:DRN 0 1.09246e-18 
c_116 M4:SRC 0 3.30626e-20 
c_117 M33:DRN M4:SRC 1.75423e-19 
c_118 M33:DRN 0 2.10969e-18 
c_119 M34:DRN M4:SRC 1.87498e-19 
c_120 M34:DRN 0 9.38699e-18 
c_121 M35:DRN 0 2.31065e-18 
c_122 M33:GATE M46:GATE 1.41757e-19 
c_123 M33:GATE M33:DRN 1.52026e-18 
c_124 M33:GATE M34:DRN 1.53378e-17 
c_125 M33:GATE M35:DRN 1.15521e-17 
c_126 M33:GATE 0 5.80716e-18 
c_127 M37:GATE M34:DRN 1.23273e-16 
c_128 M37:GATE 0 3.70438e-17 
c_129 M1:GATE 0 2.72779e-17 
c_130 M26:GATE M20:GATE 2.29317e-19 
c_131 M26:GATE M26:DRN 4.3177e-17 
c_132 M26:GATE 0 3.35132e-19 
c_133 M45:GATE M26:DRN 2.61021e-23 
c_134 M45:GATE M47:GATE 3.44501e-19 
c_135 M45:GATE M46:GATE 1.91992e-17 
c_136 M45:GATE M35:DRN 6.12444e-20 
c_137 M45:GATE 0 1.52446e-17 
c_138 M46:DRN D 2.62014e-19 
c_139 M46:DRN M47:GATE 1.88539e-18 
c_140 M46:DRN CP 1.16464e-16 
c_141 M46:DRN M46:GATE 1.66054e-17 
c_142 M46:DRN 0 5.23019e-19 
c_143 M19:GATE M21:GATE 2.39331e-19 
c_144 M19:GATE M20:GATE 5.26706e-18 
c_145 M19:GATE M26:DRN 2.28906e-17 
c_146 M19:GATE 0 1.59595e-18 
c_147 M20:DRN M22:DRN 7.42865e-17 
c_148 M20:DRN M21:GATE 3.0614e-18 
c_149 M20:DRN D 8.81046e-18 
c_150 M20:DRN M20:GATE 4.08995e-17 
c_151 M20:DRN M26:DRN 5.34654e-18 
c_152 M20:DRN M47:GATE 1.70648e-18 
c_153 M20:DRN CP 3.83467e-17 
c_154 M20:DRN M46:GATE 1.07868e-17 
c_155 M20:DRN 0 1.17763e-17 
c_156 M45:DRN M19:GATE 3.34434e-21 
c_157 M45:DRN M26:DRN 1.41489e-17 
c_158 M45:DRN M20:DRN 9.14183e-18 
c_159 M45:DRN M46:DRN 1.77409e-18 
c_160 M45:DRN M45:GATE 2.88355e-17 
c_161 M45:DRN M33:GATE 5.43079e-18 
c_162 M45:DRN 0 1.39976e-17 
c_163 M36:GATE M22:DRN 6.26667e-17 
c_164 M36:GATE M33:GATE 1.47527e-17 
c_165 M36:GATE 0 5.31482e-18 
c_166 M32:GATE M37:GATE 5.31775e-18 
c_167 M32:GATE M1:GATE 7.54218e-18 
c_168 M32:GATE 0 3.16225e-17 
c_169 M2:GATE M37:GATE 4.75165e-18 
c_170 M2:GATE 0 9.45557e-18 
c_171 M28:GATE M19:GATE 1.82591e-18 
c_172 M28:GATE M26:DRN 5.65391e-19 
c_173 M28:GATE M26:GATE 1.36164e-17 
c_174 M28:GATE 0 3.5455e-17 
c_175 N_18:1 M19:GATE 3.90247e-18 
c_176 N_18:1 M26:DRN 8.07793e-18 
c_177 N_18:1 M4:SRC 5.41676e-18 
c_178 N_18:1 M27:DRN 2.34765e-18 
c_179 N_18:1 M3:SRC 1.41901e-18 
c_180 N_18:1 M33:GATE 9.96644e-20 
c_181 N_18:1 M37:GATE 5.48857e-20 
c_182 N_18:1 M1:GATE 1.70768e-17 
c_183 N_18:1 0 1.78521e-17 
c_184 M19:DRN M22:DRN 1.84442e-17 
c_185 M19:DRN M19:GATE 7.40326e-17 
c_186 M19:DRN M26:DRN 3.42826e-17 
c_187 M19:DRN M20:DRN 1.68236e-17 
c_188 M19:DRN M26:GATE 1.97677e-17 
c_189 M19:DRN M46:DRN 2.72023e-17 
c_190 M19:DRN M45:GATE 4.24658e-17 
c_191 M19:DRN M33:GATE 1.00201e-19 
c_192 M19:DRN 0 1.25958e-18 
c_193 M57:GATE M45:GATE 1.42591e-20 
c_194 M57:GATE M36:GATE 1.50365e-24 
c_195 M57:GATE N_18:1 1.38807e-18 
c_196 M57:GATE M34:DRN 1.81058e-19 
c_197 M57:GATE M35:DRN 3.48227e-19 
c_198 M57:GATE M3:SRC 3.7276e-18 
c_199 M57:GATE M2:GATE 1.60551e-19 
c_200 M57:GATE M33:GATE 7.6294e-18 
c_201 M57:GATE M37:GATE 2.94687e-19 
c_202 M57:GATE 0 1.45471e-17 
c_203 M36:DRN M19:GATE 1.91362e-23 
c_204 M36:DRN M26:DRN 4.55738e-19 
c_205 M36:DRN M26:GATE 1.48936e-18 
c_206 M36:DRN M45:DRN 2.57376e-17 
c_207 M36:DRN M36:GATE 2.97102e-18 
c_208 M36:DRN N_18:1 1.81612e-16 
c_209 M36:DRN M34:DRN 2.35623e-18 
c_210 M36:DRN M35:DRN 3.62843e-19 
c_211 M36:DRN M33:GATE 3.59783e-17 
c_212 M36:DRN 0 7.673e-20 
c_213 M29:GATE N_18:1 2.88985e-18 
c_214 M29:GATE 0 8.81851e-18 
c_215 M28:SRC M22:DRN 3.74137e-17 
c_216 M28:SRC M19:GATE 1.48769e-17 
c_217 M28:SRC M26:DRN 1.68911e-18 
c_218 M28:SRC M26:GATE 9.0138e-18 
c_219 M28:SRC M45:GATE 1.24472e-18 
c_220 M28:SRC M45:DRN 4.62981e-17 
c_221 M28:SRC M19:DRN 4.13155e-20 
c_222 M28:SRC M36:GATE 7.35427e-18 
c_223 M28:SRC M33:DRN 2.60571e-20 
c_224 M28:SRC M28:GATE 6.84148e-17 
c_225 M28:SRC N_18:1 6.19343e-18 
c_226 M28:SRC M34:DRN 1.03763e-18 
c_227 M28:SRC M27:DRN 1.40022e-18 
c_228 M28:SRC M35:DRN 3.84577e-17 
c_229 M28:SRC M3:SRC 5.19985e-22 
c_230 M28:SRC M33:GATE 3.27519e-17 
c_231 M28:SRC 0 1.87053e-17 
c_232 N_73:1 M24:SRC 4.97168e-17 
c_233 N_73:1 D 8.47855e-18 
c_234 N_73:1 M30:GATE 6.24176e-19 
c_235 N_73:1 M44:GATE 2.04762e-17 
c_236 N_73:1 M48:SRC 5.25373e-18 
c_237 N_73:1 M47:GATE 8.65575e-18 
c_238 N_73:1 M46:DRN 8.65207e-17 
c_239 N_73:1 M45:GATE 9.63468e-18 
c_240 N_73:1 M45:DRN 4.08166e-17 
c_241 N_73:1 M48:GATE 1.028e-17 
c_242 N_73:1 M36:GATE 1.69394e-18 
c_243 N_73:1 M28:SRC 2.18734e-17 
c_244 N_73:1 M33:GATE 6.13746e-18 
c_245 N_73:1 0 2.04237e-17 
c_246 M36:SRC M19:GATE 7.51825e-24 
c_247 M36:SRC M45:GATE 4.07676e-19 
c_248 M36:SRC M45:DRN 5.00525e-17 
c_249 M36:SRC M19:DRN 7.37159e-20 
c_250 M36:SRC M36:GATE 1.62954e-17 
c_251 M36:SRC M28:SRC 7.47673e-20 
c_252 M36:SRC M33:GATE 1.55126e-17 
c_253 M36:SRC 0 1.61172e-18 
c_254 M48:DRN M30:DRN 1.08743e-17 
c_255 M48:DRN M24:SRC 1.88746e-18 
c_256 M48:DRN D 3.91775e-19 
c_257 M48:DRN M30:GATE 1.0576e-17 
c_258 M48:DRN M20:DRN 4.85568e-19 
c_259 M48:DRN M44:GATE 3.70588e-17 
c_260 M48:DRN M48:SRC 1.27581e-19 
c_261 M48:DRN M47:GATE 1.41983e-19 
c_262 M48:DRN M48:GATE 2.07517e-17 
c_263 M48:DRN M28:SRC 5.75932e-20 
c_264 M48:DRN 0 7.83608e-18 
c_265 SDN:1 M57:GATE 1.02081e-18 
c_266 SDN:1 0 3.77911e-17 
c_267 M58:GATE M29:GATE 1.57288e-17 
c_268 M58:GATE M57:GATE 2.81365e-17 
c_269 M58:GATE 0 2.1815e-17 
c_270 M43:GATE M57:GATE 3.71171e-22 
c_271 M43:GATE 0 2.4738e-18 
c_272 SDN 0 1.21603e-17 
c_273 M3:GATE M29:GATE 5.49928e-18 
c_274 M3:GATE 0 4.94882e-17 
c_275 M18:GATE 0 1.37496e-17 
c_276 QN 0 3.07293e-17 
c_277 M55:SRC 0 1.34043e-17 
c_278 M53:SRC 0 1.13125e-17 
c_279 M12:DRN 0 3.05408e-18 
c_280 M10:DRN 0 3.59075e-18 
c_281 Q 0 2.64333e-17 
c_282 M52:DRN 0 4.94645e-19 
c_283 M50:DRN 0 5.08915e-18 
c_284 M8:DRN 0 4.10403e-18 
c_285 M6:DRN 0 1.76834e-18 
c_286 N_62:1 M26:GATE 1.4527e-19 
c_287 N_62:1 M45:GATE 4.64216e-20 
c_288 N_62:1 M45:DRN 9.93226e-19 
c_289 N_62:1 M19:DRN 2.52911e-19 
c_290 N_62:1 M36:GATE 3.66214e-19 
c_291 N_62:1 M28:SRC 1.45481e-17 
c_292 N_62:1 M36:DRN 7.9635e-17 
c_293 N_62:1 M33:DRN 6.3755e-18 
c_294 N_62:1 M28:GATE 1.4765e-17 
c_295 N_62:1 N_18:1 8.19257e-17 
c_296 N_62:1 M34:DRN 2.50077e-17 
c_297 N_62:1 M4:SRC 3.48998e-18 
c_298 N_62:1 M27:DRN 2.91204e-19 
c_299 N_62:1 M35:DRN 7.33575e-17 
c_300 N_62:1 M29:GATE 5.52588e-17 
c_301 N_62:1 M57:GATE 2.7222e-17 
c_302 N_62:1 M3:SRC 2.80995e-19 
c_303 N_62:1 M3:GATE 2.23298e-17 
c_304 N_62:1 M58:GATE 5.72657e-18 
c_305 N_62:1 M2:GATE 2.69215e-18 
c_306 N_62:1 M33:GATE 2.95139e-18 
c_307 N_62:1 M37:GATE 1.1473e-16 
c_308 N_62:1 0 1.74013e-18 
c_309 M57:DRN M36:DRN 4.79302e-20 
c_310 M57:DRN M34:DRN 1.23047e-18 
c_311 M57:DRN M35:DRN 1.91012e-17 
c_312 M57:DRN M29:GATE 2.95633e-17 
c_313 M57:DRN M3:SRC 3.56164e-19 
c_314 M57:DRN M58:GATE 1.47635e-19 
c_315 M57:DRN M33:GATE 5.25086e-18 
c_316 M57:DRN 0 4.62875e-19 
c_317 M58:SRC N_18:1 3.94164e-20 
c_318 M58:SRC M57:GATE 1.47635e-19 
c_319 M58:SRC M3:GATE 1.66013e-17 
c_320 M58:SRC SDN:1 1.01311e-17 
c_321 M58:SRC M2:GATE 3.66872e-18 
c_322 M58:SRC M37:GATE 3.98455e-17 
c_323 M58:SRC M32:GATE 3.20549e-19 
c_324 M58:SRC 0 6.47693e-18 
c_325 M34:GATE M36:GATE 4.45428e-20 
c_326 M34:GATE M28:SRC 1.74701e-19 
c_327 M34:GATE M36:DRN 7.12348e-19 
c_328 M34:GATE M34:DRN 1.15201e-17 
c_329 M34:GATE M35:DRN 7.47305e-18 
c_330 M34:GATE M57:GATE 1.02192e-19 
c_331 M34:GATE M58:GATE 5.762e-21 
c_332 M34:GATE M33:GATE 1.27834e-17 
c_333 M34:GATE 0 6.47322e-18 
c_334 M4:GATE M19:GATE 1.52276e-19 
c_335 M4:GATE M28:SRC 1.37326e-18 
c_336 M4:GATE M28:GATE 4.03672e-18 
c_337 M4:GATE N_18:1 1.38201e-17 
c_338 M4:GATE M57:GATE 4.24038e-20 
c_339 M4:GATE 0 2.61302e-17 
c_340 M3:DRN M1:GATE 3.07998e-19 
c_341 M3:DRN M3:GATE 8.00357e-18 
c_342 M3:DRN M29:GATE 8.07083e-19 
c_343 M3:DRN N_18:1 7.35086e-18 
c_344 M3:DRN M19:DRN 3.61697e-21 
c_345 M3:DRN 0 3.06815e-18 
c_346 M2:DRN N_18:1 2.24677e-17 
c_347 M2:DRN M29:GATE 1.60689e-19 
c_348 M2:DRN M3:GATE 2.08716e-17 
c_349 M2:DRN SDN:1 8.48097e-21 
c_350 M2:DRN M58:GATE 3.15647e-19 
c_351 M2:DRN M32:GATE 2.46545e-19 
c_352 M2:DRN M1:GATE 1.17434e-19 
c_353 M2:DRN 0 4.07934e-18 
c_354 CDN:1 N_18:1 3.77696e-19 
c_355 CDN:1 M14:SRC 8.08676e-19 
c_356 CDN:1 M32:GATE 1.81728e-22 
c_357 CDN:1 0 5.68857e-18 
c_358 M40:GATE 0 5.78189e-18 
c_359 M35:GATE M19:DRN 1.33738e-19 
c_360 M35:GATE M36:GATE 1.36362e-20 
c_361 M35:GATE N_18:1 1.62999e-19 
c_362 M35:GATE M34:DRN 1.06341e-19 
c_363 M35:GATE M34:GATE 8.68074e-18 
c_364 M35:GATE M27:DRN 4.4305e-19 
c_365 M35:GATE M35:DRN 2.55625e-17 
c_366 M35:GATE N_62:1 1.15086e-17 
c_367 M35:GATE M57:DRN 6.92805e-18 
c_368 M35:GATE 0 8.49355e-18 
c_369 M41:GATE M32:GATE 4.34103e-20 
c_370 M41:GATE 0 2.43705e-18 
c_371 M27:GATE M19:DRN 5.06649e-20 
c_372 M27:GATE M28:GATE 5.15362e-19 
c_373 M27:GATE N_18:1 6.30186e-18 
c_374 M27:GATE M34:GATE 1.48711e-17 
c_375 M27:GATE M4:GATE 2.75316e-18 
c_376 M27:GATE M35:DRN 5.62793e-21 
c_377 M27:GATE N_62:1 1.11559e-17 
c_378 M27:GATE M57:DRN 4.66645e-19 
c_379 M27:GATE 0 2.43166e-17 
c_380 CDN N_18:1 5.97387e-20 
c_381 CDN M14:SRC 4.65209e-19 
c_382 CDN 0 2.32014e-17 
c_383 M15:GATE N_18:1 1.82143e-19 
c_384 M15:GATE 0 7.23096e-18 
c_385 M16:GATE 0 1.22627e-18 
c_386 CDN:2 M3:DRN 4.68521e-18 
c_387 CDN:2 M19:DRN 6.73978e-20 
c_388 CDN:2 N_18:1 5.29846e-17 
c_389 CDN:2 M4:GATE 6.74662e-18 
c_390 CDN:2 M35:DRN 3.68438e-19 
c_391 CDN:2 N_62:1 6.70286e-19 
c_392 CDN:2 M57:DRN 2.73613e-21 
c_393 CDN:2 M3:SRC 4.85393e-18 
c_394 CDN:2 M58:SRC 2.67907e-22 
c_395 CDN:2 M2:DRN 1.39444e-18 